<?xml version="1.0" encoding="UTF-8"?>

<!-- generated on 2026-02-02T14:11:59.793555+03:00 by Eclipse SUMO netedit 1.25.0
-->

<additional xmlns:xsi="http://www.w3.org/2001/XMLSchema-instance" xsi:noNamespaceSchemaLocation="http://sumo.dlr.de/xsd/additional_file.xsd">
    <!-- Detectors -->
    <inductionLoop id="sensor_kavsak" lane="otoban_sol_1_2" pos="-1.00" period="300.00" file="e1_0.xml"/>
    <inductionLoop id="sensor_otoban_1" lane="otoban_sol_1_2" pos="100.00" period="300.00" file="e1_1.xml"/>
</additional>
