<?xml version="1.0" encoding="UTF-8"?>

<!-- generated on 2026-02-04T22:53:42.853605+03:00 by Eclipse SUMO netedit 1.25.0
<neteditConfiguration xmlns:xsi="http://www.w3.org/2001/XMLSchema-instance" xsi:noNamespaceSchemaLocation="http://sumo.dlr.de/xsd/neteditConfiguration.xsd">

    <input>
        <sumo-net-file value="C:\Users\Hp\Desktop\Tez_Simulasyon\network.net.xml"/>
    </input>

    <output>
        <output-file value="C:\Users\Hp\Desktop\Tez_Simulasyon\network.net.xml"/>
    </output>

    <processing>
        <geometry.min-radius.fix.railways value="false"/>
        <geometry.avoid-overlap value="false"/>
        <geometry.max-grade.fix value="false"/>
        <offset.disable-normalization value="true"/>
        <lefthand value="0"/>
    </processing>

    <junctions>
        <no-turnarounds value="true"/>
        <junctions.corner-detail value="5"/>
        <junctions.limit-turn-speed value="5.50"/>
        <rectangular-lane-cut value="0"/>
    </junctions>

    <pedestrian>
        <walkingareas value="0"/>
    </pedestrian>

</neteditConfiguration>
-->

<net version="1.20" junctionCornerDetail="5" limitTurnSpeed="5.50" avoidOverlap="0" xmlns:xsi="http://www.w3.org/2001/XMLSchema-instance" xsi:noNamespaceSchemaLocation="http://sumo.dlr.de/xsd/net_file.xsd">

    <location netOffset="0.00,0.00" convBoundary="-100.00,-300.00,1400.00,300.00" origBoundary="-10000000000.00,-10000000000.00,10000000000.00,10000000000.00" projParameter="!"/>

    <edge id=":J0_0" function="internal">
        <lane id=":J0_0_0" index="0" speed="13.16" length="16.06" shape="593.78,-100.57 597.29,-103.52 600.31,-104.72 603.75,-104.90 608.52,-104.80"/>
        <lane id=":J0_0_1" index="1" speed="12.10" length="13.52" shape="596.04,-98.30 599.01,-100.74 601.57,-101.66 604.49,-101.73 608.52,-101.60"/>
    </edge>
    <edge id=":J0_2" function="internal">
        <lane id=":J0_2_0" index="0" speed="7.33" length="11.72" shape="596.04,-98.30 598.16,-99.65 600.57,-99.72 603.25,-98.52 606.22,-96.04"/>
    </edge>
    <edge id=":J2_0" function="internal">
        <lane id=":J2_0_0" index="0" speed="13.01" length="15.70" shape="608.53,104.80 603.66,104.53 599.58,103.74 596.29,102.42 593.78,100.57"/>
        <lane id=":J2_0_1" index="1" speed="11.95" length="13.20" shape="608.53,101.60 604.30,101.39 600.81,100.78 598.06,99.75 596.04,98.30"/>
    </edge>
    <edge id=":J2_2" function="internal">
        <lane id=":J2_2_0" index="0" speed="7.33" length="11.73" shape="606.22,96.04 603.25,98.51 600.57,99.72 598.16,99.65 596.04,98.30"/>
    </edge>
    <edge id=":J31_0" function="internal">
        <lane id=":J31_0_0" index="0" speed="7.11" length="4.40" shape="702.98,1.60 701.87,1.70 700.83,2.01 699.89,2.52 699.02,3.24"/>
    </edge>
    <edge id=":J31_1" function="internal">
        <lane id=":J31_1_0" index="0" speed="7.11" length="4.40" shape="699.02,-3.24 699.89,-2.52 700.83,-2.01 701.87,-1.70 702.98,-1.60"/>
    </edge>
    <edge id=":J31_2" function="internal">
        <lane id=":J31_2_0" index="0" speed="5.95" length="4.05" shape="699.02,-3.24 700.24,-1.62 700.64,0.00 700.56,0.35"/>
    </edge>
    <edge id=":J31_3" function="internal">
        <lane id=":J31_3_0" index="0" speed="5.95" length="3.34" shape="700.56,0.35 700.24,1.62 699.02,3.24"/>
    </edge>
    <edge id=":J32_0" function="internal">
        <lane id=":J32_0_0" index="0" speed="7.12" length="4.40" shape="800.98,3.24 800.12,2.52 799.17,2.01 798.13,1.70 797.01,1.60"/>
    </edge>
    <edge id=":J32_1" function="internal">
        <lane id=":J32_1_0" index="0" speed="5.96" length="4.06" shape="800.98,3.24 799.76,1.62 799.36,-0.00 799.45,-0.35"/>
    </edge>
    <edge id=":J32_3" function="internal">
        <lane id=":J32_3_0" index="0" speed="5.96" length="3.34" shape="799.45,-0.35 799.76,-1.62 800.98,-3.24"/>
    </edge>
    <edge id=":J32_2" function="internal">
        <lane id=":J32_2_0" index="0" speed="7.11" length="4.40" shape="797.01,-1.60 798.13,-1.70 799.17,-2.01 800.11,-2.52 800.98,-3.24"/>
    </edge>
    <edge id=":J5_0" function="internal">
        <lane id=":J5_0_0" index="0" speed="7.11" length="4.40" shape="502.85,9.64 501.99,8.92 501.04,8.41 500.01,8.10 498.89,8.00"/>
        <lane id=":J5_0_1" index="1" speed="8.78" length="6.91" shape="505.11,7.38 503.76,6.25 502.27,5.44 500.65,4.96 498.89,4.80"/>
    </edge>
    <edge id=":J5_2" function="internal">
        <lane id=":J5_2_0" index="0" speed="8.67" length="16.83" shape="505.11,7.38 502.35,3.69 501.43,-0.00 502.35,-3.69 505.11,-7.38"/>
    </edge>
    <edge id=":J5_3" function="internal">
        <lane id=":J5_3_0" index="0" speed="7.11" length="4.40" shape="498.89,-8.00 500.01,-8.10 501.04,-8.41 501.99,-8.92 502.85,-9.64"/>
        <lane id=":J5_3_1" index="1" speed="8.78" length="6.91" shape="498.89,-4.80 500.65,-4.96 502.27,-5.44 503.76,-6.25 505.11,-7.38"/>
    </edge>
    <edge id=":J8_0" function="internal">
        <lane id=":J8_0_0" index="0" speed="15.54" length="9.42" shape="1099.11,8.00 1096.55,8.04 1094.79,8.26 1093.11,8.85 1090.81,9.96"/>
        <lane id=":J8_0_1" index="1" speed="16.80" length="9.42" shape="1099.11,4.80 1096.11,4.84 1094.05,5.11 1092.08,5.79 1089.38,7.09"/>
    </edge>
    <edge id=":J8_2" function="internal">
        <lane id=":J8_2_0" index="0" speed="15.50" length="9.41" shape="1090.82,-9.96 1093.13,-8.85 1094.80,-8.26 1096.56,-8.04 1099.11,-8.00"/>
        <lane id=":J8_2_1" index="1" speed="16.76" length="9.41" shape="1089.39,-7.10 1092.09,-5.79 1094.05,-5.11 1096.12,-4.84 1099.11,-4.80"/>
    </edge>
    <edge id=":J8_4" function="internal">
        <lane id=":J8_4_0" index="0" speed="7.92" length="14.60" shape="1089.39,-7.10 1094.71,-3.55 1096.48,-0.00 1094.70,3.55 1094.48,3.70"/>
    </edge>
    <edge id=":J8_5" function="internal">
        <lane id=":J8_5_0" index="0" speed="7.92" length="6.13" shape="1094.48,3.70 1089.38,7.09"/>
    </edge>
    <edge id=":center_0" function="internal">
        <lane id=":center_0_0" index="0" speed="6.51" length="9.03" shape="192.00,13.60 191.65,11.15 190.60,9.40 188.85,8.35 186.40,8.00"/>
    </edge>
    <edge id=":center_1" function="internal">
        <lane id=":center_1_0" index="0" speed="30.00" length="27.20" shape="192.00,13.60 192.00,-13.60"/>
        <lane id=":center_1_1" index="1" speed="30.00" length="27.20" shape="195.20,13.60 195.20,-13.60"/>
        <lane id=":center_1_2" index="2" speed="30.00" length="27.20" shape="198.40,13.60 198.40,-13.60"/>
    </edge>
    <edge id=":center_4" function="internal">
        <lane id=":center_4_0" index="0" speed="10.36" length="5.01" shape="198.40,13.60 199.11,8.64"/>
    </edge>
    <edge id=":center_20" function="internal">
        <lane id=":center_20_0" index="0" speed="10.36" length="19.50" shape="199.11,8.64 199.35,6.95 202.20,2.20 206.95,-0.65 213.60,-1.60"/>
    </edge>
    <edge id=":center_5" function="internal">
        <lane id=":center_5_0" index="0" speed="6.51" length="9.03" shape="213.60,8.00 211.15,8.35 209.40,9.40 208.35,11.15 208.00,13.60"/>
    </edge>
    <edge id=":center_6" function="internal">
        <lane id=":center_6_0" index="0" speed="30.00" length="27.20" shape="213.60,8.00 186.40,8.00"/>
        <lane id=":center_6_1" index="1" speed="30.00" length="27.20" shape="213.60,4.80 186.40,4.80"/>
        <lane id=":center_6_2" index="2" speed="30.00" length="27.20" shape="213.60,1.60 186.40,1.60"/>
    </edge>
    <edge id=":center_9" function="internal">
        <lane id=":center_9_0" index="0" speed="10.36" length="5.01" shape="213.60,1.60 208.64,0.89"/>
    </edge>
    <edge id=":center_21" function="internal">
        <lane id=":center_21_0" index="0" speed="10.36" length="19.50" shape="208.64,0.89 206.95,0.65 202.20,-2.20 199.35,-6.95 198.40,-13.60"/>
    </edge>
    <edge id=":center_10" function="internal">
        <lane id=":center_10_0" index="0" speed="6.51" length="9.03" shape="208.00,-13.60 208.35,-11.15 209.40,-9.40 211.15,-8.35 213.60,-8.00"/>
    </edge>
    <edge id=":center_11" function="internal">
        <lane id=":center_11_0" index="0" speed="30.00" length="27.20" shape="208.00,-13.60 208.00,13.60"/>
        <lane id=":center_11_1" index="1" speed="30.00" length="27.20" shape="204.80,-13.60 204.80,13.60"/>
        <lane id=":center_11_2" index="2" speed="30.00" length="27.20" shape="201.60,-13.60 201.60,13.60"/>
    </edge>
    <edge id=":center_14" function="internal">
        <lane id=":center_14_0" index="0" speed="10.36" length="5.01" shape="201.60,-13.60 200.89,-8.64"/>
    </edge>
    <edge id=":center_22" function="internal">
        <lane id=":center_22_0" index="0" speed="10.36" length="19.50" shape="200.89,-8.64 200.65,-6.95 197.80,-2.20 193.05,0.65 186.40,1.60"/>
    </edge>
    <edge id=":center_15" function="internal">
        <lane id=":center_15_0" index="0" speed="6.51" length="9.03" shape="186.40,-8.00 188.85,-8.35 190.60,-9.40 191.65,-11.15 192.00,-13.60"/>
    </edge>
    <edge id=":center_16" function="internal">
        <lane id=":center_16_0" index="0" speed="30.00" length="27.20" shape="186.40,-8.00 213.60,-8.00"/>
        <lane id=":center_16_1" index="1" speed="30.00" length="27.20" shape="186.40,-4.80 213.60,-4.80"/>
        <lane id=":center_16_2" index="2" speed="30.00" length="27.20" shape="186.40,-1.60 213.60,-1.60"/>
    </edge>
    <edge id=":center_19" function="internal">
        <lane id=":center_19_0" index="0" speed="10.36" length="5.01" shape="186.40,-1.60 191.36,-0.89"/>
    </edge>
    <edge id=":center_23" function="internal">
        <lane id=":center_23_0" index="0" speed="10.36" length="19.50" shape="191.36,-0.89 193.05,-0.65 197.80,2.20 200.65,6.95 201.60,13.60"/>
    </edge>
    <edge id=":clusterJ33_J6_0" function="internal">
        <lane id=":clusterJ33_J6_0_0" index="0" speed="13.89" length="11.74" shape="892.49,-104.90 896.20,-105.00 898.80,-105.03 901.28,-104.54 904.63,-103.10"/>
        <lane id=":clusterJ33_J6_0_1" index="1" speed="13.89" length="11.74" shape="892.49,-101.70 895.76,-101.81 898.06,-101.88 900.25,-101.49 903.20,-100.24"/>
    </edge>
    <edge id=":clusterJ33_J6_2" function="internal">
        <lane id=":clusterJ33_J6_2_0" index="0" speed="7.73" length="9.94" shape="894.47,-96.93 896.93,-99.05 899.21,-100.31 901.30,-100.71 903.20,-100.24"/>
    </edge>
    <edge id=":clusterJ36_J7_0" function="internal">
        <lane id=":clusterJ36_J7_0_0" index="0" speed="13.89" length="11.73" shape="904.62,102.91 901.28,104.34 898.80,104.83 896.21,104.81 892.50,104.70"/>
        <lane id=":clusterJ36_J7_0_1" index="1" speed="13.89" length="11.73" shape="903.19,100.04 900.24,101.29 898.06,101.68 895.76,101.61 892.50,101.50"/>
    </edge>
    <edge id=":clusterJ36_J7_2" function="internal">
        <lane id=":clusterJ36_J7_2_0" index="0" speed="7.73" length="9.93" shape="903.19,100.04 901.29,100.51 899.21,100.12 896.93,98.86 894.47,96.73"/>
    </edge>

    <edge id="ara_merkez_1" from="J31" to="J32" priority="-1">
        <lane id="ara_merkez_1_0" index="0" speed="10.00" length="94.03" shape="702.98,-1.60 797.01,-1.60"/>
    </edge>
    <edge id="ara_merkez_2" from="J32" to="J31" priority="-1">
        <lane id="ara_merkez_2_0" index="0" speed="10.00" length="94.03" shape="797.01,1.60 702.98,1.60"/>
    </edge>
    <edge id="ara_sag_1" from="J31" to="J2" priority="-1">
        <lane id="ara_sag_1_0" index="0" speed="10.00" length="131.24" shape="699.02,3.24 606.22,96.04"/>
    </edge>
    <edge id="ara_sag_2" from="clusterJ36_J7" to="J32" priority="-1" shape="899.90,99.90 800.00,0.00">
        <lane id="ara_sag_2_0" index="0" speed="10.00" length="132.22" shape="894.47,96.73 800.98,3.24"/>
    </edge>
    <edge id="ara_sol_1" from="J0" to="J31" priority="-1">
        <lane id="ara_sol_1_0" index="0" speed="10.00" length="131.24" shape="606.22,-96.04 699.02,-3.24"/>
    </edge>
    <edge id="ara_sol_2" from="J32" to="clusterJ33_J6" priority="-1" shape="800.00,0.00 899.90,-100.10">
        <lane id="ara_sol_2_0" index="0" speed="10.00" length="132.35" shape="800.98,-3.24 894.47,-96.93"/>
    </edge>
    <edge id="otoban_asagi_1" from="center" to="J4" priority="-1">
        <lane id="otoban_asagi_1_0" index="0" speed="30.00" length="286.40" shape="192.00,-13.60 192.00,-300.00"/>
        <lane id="otoban_asagi_1_1" index="1" speed="30.00" length="286.40" shape="195.20,-13.60 195.20,-300.00"/>
        <lane id="otoban_asagi_1_2" index="2" speed="30.00" length="286.40" shape="198.40,-13.60 198.40,-300.00"/>
    </edge>
    <edge id="otoban_asagi_2" from="J4" to="center" priority="-1">
        <lane id="otoban_asagi_2_0" index="0" speed="30.00" length="286.40" shape="208.00,-300.00 208.00,-13.60"/>
        <lane id="otoban_asagi_2_1" index="1" speed="30.00" length="286.40" shape="204.80,-300.00 204.80,-13.60"/>
        <lane id="otoban_asagi_2_2" index="2" speed="30.00" length="286.40" shape="201.60,-300.00 201.60,-13.60"/>
    </edge>
    <edge id="otoban_sag_1" from="center" to="J5" priority="-1">
        <lane id="otoban_sag_1_0" index="0" speed="30.00" length="285.29" shape="213.60,-8.00 498.89,-8.00"/>
        <lane id="otoban_sag_1_1" index="1" speed="30.00" length="285.29" shape="213.60,-4.80 498.89,-4.80"/>
        <lane id="otoban_sag_1_2" index="2" speed="30.00" length="285.29" shape="213.60,-1.60 498.89,-1.60"/>
    </edge>
    <edge id="otoban_sag_2" from="J5" to="center" priority="-1">
        <lane id="otoban_sag_2_0" index="0" speed="30.00" length="285.29" shape="498.89,8.00 213.60,8.00"/>
        <lane id="otoban_sag_2_1" index="1" speed="30.00" length="285.29" shape="498.89,4.80 213.60,4.80"/>
        <lane id="otoban_sag_2_2" index="2" speed="30.00" length="285.29" shape="498.89,1.60 213.60,1.60"/>
    </edge>
    <edge id="otoban_sol_1" from="J1" to="center" priority="-1">
        <lane id="otoban_sol_1_0" index="0" speed="30.00" length="286.40" shape="-100.00,-8.00 186.40,-8.00"/>
        <lane id="otoban_sol_1_1" index="1" speed="30.00" length="286.40" shape="-100.00,-4.80 186.40,-4.80"/>
        <lane id="otoban_sol_1_2" index="2" speed="30.00" length="286.40" shape="-100.00,-1.60 186.40,-1.60"/>
    </edge>
    <edge id="otoban_sol_2" from="center" to="J1" priority="-1">
        <lane id="otoban_sol_2_0" index="0" speed="30.00" length="286.40" shape="186.40,8.00 -100.00,8.00"/>
        <lane id="otoban_sol_2_1" index="1" speed="30.00" length="286.40" shape="186.40,4.80 -100.00,4.80"/>
        <lane id="otoban_sol_2_2" index="2" speed="30.00" length="286.40" shape="186.40,1.60 -100.00,1.60"/>
    </edge>
    <edge id="otoban_yukari1" from="center" to="J3" priority="-1">
        <lane id="otoban_yukari1_0" index="0" speed="30.00" length="286.40" shape="208.00,13.60 208.00,300.00"/>
        <lane id="otoban_yukari1_1" index="1" speed="30.00" length="286.40" shape="204.80,13.60 204.80,300.00"/>
        <lane id="otoban_yukari1_2" index="2" speed="30.00" length="286.40" shape="201.60,13.60 201.60,300.00"/>
    </edge>
    <edge id="otoban_yukari_2" from="J3" to="center" priority="-1">
        <lane id="otoban_yukari_2_0" index="0" speed="30.00" length="286.40" shape="192.00,300.00 192.00,13.60"/>
        <lane id="otoban_yukari_2_1" index="1" speed="30.00" length="286.40" shape="195.20,300.00 195.20,13.60"/>
        <lane id="otoban_yukari_2_2" index="2" speed="30.00" length="286.40" shape="198.40,300.00 198.40,13.60"/>
    </edge>
    <edge id="sehir_cikis_1" from="J8" to="J9" priority="-1">
        <lane id="sehir_cikis_1_0" index="0" speed="30.00" length="300.89" shape="1099.11,-8.00 1400.00,-8.00"/>
        <lane id="sehir_cikis_1_1" index="1" speed="30.00" length="300.89" shape="1099.11,-4.80 1400.00,-4.80"/>
        <lane id="sehir_cikis_1_2" index="2" speed="30.00" length="300.89" shape="1099.11,-1.60 1400.00,-1.60"/>
    </edge>
    <edge id="sehir_cikis_2" from="J9" to="J8" priority="-1">
        <lane id="sehir_cikis_2_0" index="0" speed="30.00" length="300.89" shape="1400.00,8.00 1099.11,8.00"/>
        <lane id="sehir_cikis_2_1" index="1" speed="30.00" length="300.89" shape="1400.00,4.80 1099.11,4.80"/>
        <lane id="sehir_cikis_2_2" index="2" speed="30.00" length="300.89" shape="1400.00,1.60 1099.11,1.60"/>
    </edge>
    <edge id="sehir_merkez_alt_1" from="J0" to="clusterJ33_J6" priority="-1" shape="600.00,-100.00 899.90,-100.10">
        <lane id="sehir_merkez_alt_1_0" index="0" speed="13.89" length="283.97" shape="608.52,-104.80 892.49,-104.90"/>
        <lane id="sehir_merkez_alt_1_1" index="1" speed="13.89" length="283.97" shape="608.52,-101.60 892.49,-101.70"/>
    </edge>
    <edge id="sehir_merkez_ust_2" from="clusterJ36_J7" to="J2" priority="-1" shape="899.90,99.90 600.00,100.00">
        <lane id="sehir_merkez_ust_2_0" index="0" speed="13.89" length="283.97" shape="892.50,104.70 608.53,104.80"/>
        <lane id="sehir_merkez_ust_2_1" index="1" speed="13.89" length="283.97" shape="892.50,101.50 608.53,101.60"/>
    </edge>
    <edge id="sehir_sagcikis" from="J8" to="clusterJ36_J7" priority="-1" shape="1100.00,0.00 899.90,99.90">
        <lane id="sehir_sagcikis_0" index="0" speed="13.89" length="208.10" shape="1090.81,9.96 904.62,102.91"/>
        <lane id="sehir_sagcikis_1" index="1" speed="13.89" length="208.10" shape="1089.38,7.09 903.19,100.04"/>
    </edge>
    <edge id="sehir_saggiris" from="J2" to="J5" priority="-1">
        <lane id="sehir_saggiris_0" index="0" speed="13.89" length="128.59" shape="593.78,100.57 502.85,9.64"/>
        <lane id="sehir_saggiris_1" index="1" speed="13.89" length="128.59" shape="596.04,98.30 505.11,7.38"/>
    </edge>
    <edge id="sehir_solcikis" from="clusterJ33_J6" to="J8" priority="-1" shape="899.90,-100.10 1100.00,0.00">
        <lane id="sehir_solcikis_0" index="0" speed="13.89" length="208.19" shape="904.63,-103.10 1090.82,-9.96"/>
        <lane id="sehir_solcikis_1" index="1" speed="13.89" length="208.19" shape="903.20,-100.24 1089.39,-7.10"/>
    </edge>
    <edge id="sehir_solgiris" from="J5" to="J0" priority="-1">
        <lane id="sehir_solgiris_0" index="0" speed="13.89" length="128.59" shape="502.85,-9.64 593.78,-100.57"/>
        <lane id="sehir_solgiris_1" index="1" speed="13.89" length="128.59" shape="505.11,-7.38 596.04,-98.30"/>
    </edge>

    <tlLogic id="center" type="static" programID="0" offset="0">
        <phase duration="39" state="GGGGgrrrrrGGGGgrrrrr"/>
        <phase duration="6"  state="yyyyyrrrrryyyyyrrrrr"/>
        <phase duration="39" state="rrrrrGGGGgrrrrrGGGGg"/>
        <phase duration="6"  state="rrrrryyyyyrrrrryyyyy"/>
    </tlLogic>

    <junction id="J0" type="priority" x="600.00" y="-100.00" incLanes="sehir_solgiris_0 sehir_solgiris_1" intLanes=":J0_0_0 :J0_0_1 :J0_2_0" shape="605.09,-94.91 607.35,-97.17 606.23,-98.74 606.23,-99.29 606.62,-99.69 607.38,-99.92 608.52,-100.00 608.52,-106.40 604.88,-106.46 602.03,-106.48 599.67,-106.24 597.52,-105.52 595.28,-104.08 592.65,-101.70 597.17,-97.17 599.31,-98.18 600.57,-98.02 601.95,-97.42 603.46,-96.39">
        <request index="0" response="000" foes="000" cont="0"/>
        <request index="1" response="000" foes="000" cont="0"/>
        <request index="2" response="000" foes="000" cont="0"/>
    </junction>
    <junction id="J1" type="dead_end" x="-100.00" y="0.00" incLanes="otoban_sol_2_0 otoban_sol_2_1 otoban_sol_2_2" intLanes="" shape="-100.00,0.00 -100.00,9.60 -100.00,0.00"/>
    <junction id="J2" type="priority" x="600.00" y="100.00" incLanes="sehir_merkez_ust_2_0 sehir_merkez_ust_2_1 ara_sag_1_0" intLanes=":J2_0_0 :J2_0_1 :J2_2_0" shape="608.53,106.40 608.53,100.00 606.62,99.68 606.23,99.29 606.23,98.74 606.60,98.03 607.36,97.17 605.09,94.91 603.46,96.38 601.95,97.42 600.57,98.02 599.31,98.18 598.18,97.89 597.17,97.17 592.65,101.70 594.39,103.13 596.50,104.31 598.97,105.22 601.80,105.88 604.98,106.27">
        <request index="0" response="000" foes="100" cont="0"/>
        <request index="1" response="000" foes="100" cont="0"/>
        <request index="2" response="011" foes="011" cont="0"/>
    </junction>
    <junction id="J3" type="dead_end" x="200.00" y="300.00" incLanes="otoban_yukari1_0 otoban_yukari1_1 otoban_yukari1_2" intLanes="" shape="200.00,300.00 209.60,300.00 200.00,300.00"/>
    <junction id="J31" type="priority" x="700.00" y="0.00" incLanes="ara_merkez_2_0 ara_sol_1_0" intLanes=":J31_0_0 :J31_1_0 :J31_3_0" shape="702.98,3.20 702.98,-3.20 701.93,-3.33 701.45,-3.49 700.99,-3.72 700.56,-4.01 700.15,-4.37 697.89,-2.11 698.83,-0.70 698.95,0.00 698.83,0.70 698.48,1.41 697.89,2.11 700.15,4.37 701.03,3.59 701.40,3.38 701.81,3.26 702.32,3.21">
        <request index="0" response="000" foes="100" cont="0"/>
        <request index="1" response="000" foes="000" cont="0"/>
        <request index="2" response="001" foes="001" cont="1"/>
    </junction>
    <junction id="J32" type="priority" x="800.00" y="0.00" incLanes="ara_sag_2_0 ara_merkez_1_0" intLanes=":J32_0_0 :J32_3_0 :J32_2_0" shape="799.85,4.37 802.11,2.11 801.17,0.70 801.06,-0.00 801.17,-0.71 801.52,-1.41 802.11,-2.11 799.84,-4.37 799.01,-3.72 798.55,-3.49 798.07,-3.33 797.55,-3.23 797.01,-3.20 797.01,3.20 798.07,3.33 798.55,3.49 799.01,3.72 799.44,4.01">
        <request index="0" response="000" foes="000" cont="0"/>
        <request index="1" response="100" foes="100" cont="1"/>
        <request index="2" response="000" foes="010" cont="0"/>
    </junction>
    <junction id="J4" type="dead_end" x="200.00" y="-300.00" incLanes="otoban_asagi_1_0 otoban_asagi_1_1 otoban_asagi_1_2" intLanes="" shape="200.00,-300.00 190.40,-300.00 200.00,-300.00"/>
    <junction id="J5" type="priority" x="500.00" y="0.00" incLanes="sehir_saggiris_0 sehir_saggiris_1 otoban_sag_1_0 otoban_sag_1_1 otoban_sag_1_2" intLanes=":J5_0_0 :J5_0_1 :J5_2_0 :J5_3_0 :J5_3_1" shape="501.72,10.77 506.25,6.25 504.51,4.16 503.47,2.08 503.12,-0.00 503.47,-2.08 504.51,-4.16 506.25,-6.25 501.72,-10.77 500.89,-10.12 500.43,-9.89 499.94,-9.73 499.43,-9.63 498.89,-9.60 498.89,9.60 499.94,9.73 500.43,9.89 500.89,10.12 501.32,10.41">
        <request index="0" response="00000" foes="00000" cont="0"/>
        <request index="1" response="00000" foes="00000" cont="0"/>
        <request index="2" response="11000" foes="11000" cont="0"/>
        <request index="3" response="00000" foes="00100" cont="0"/>
        <request index="4" response="00000" foes="00100" cont="0"/>
    </junction>
    <junction id="J8" type="priority" x="1100.00" y="0.00" incLanes="sehir_cikis_2_0 sehir_cikis_2_1 sehir_cikis_2_2 sehir_solcikis_0 sehir_solcikis_1" intLanes=":J8_0_0 :J8_0_1 :J8_2_0 :J8_2_1 :J8_5_0" shape="1099.11,9.60 1099.11,-9.60 1096.19,-9.68 1095.17,-9.84 1094.18,-10.15 1093.04,-10.65 1091.54,-11.39 1088.67,-5.67 1091.82,-3.78 1093.71,-1.89 1094.33,-0.00 1093.70,1.89 1091.81,3.77 1088.66,5.66 1091.52,11.39 1094.17,10.15 1095.16,9.84 1096.19,9.68 1097.44,9.61">
        <request index="0" response="00000" foes="10000" cont="0"/>
        <request index="1" response="00000" foes="10000" cont="0"/>
        <request index="2" response="00000" foes="00000" cont="0"/>
        <request index="3" response="00000" foes="00000" cont="0"/>
        <request index="4" response="00011" foes="00011" cont="1"/>
    </junction>
    <junction id="J9" type="dead_end" x="1400.00" y="0.00" incLanes="sehir_cikis_1_0 sehir_cikis_1_1 sehir_cikis_1_2" intLanes="" shape="1400.00,0.00 1400.00,-9.60 1400.00,0.00"/>
    <junction id="center" type="traffic_light" x="200.00" y="0.00" incLanes="otoban_yukari_2_0 otoban_yukari_2_1 otoban_yukari_2_2 otoban_sag_2_0 otoban_sag_2_1 otoban_sag_2_2 otoban_asagi_2_0 otoban_asagi_2_1 otoban_asagi_2_2 otoban_sol_1_0 otoban_sol_1_1 otoban_sol_1_2" intLanes=":center_0_0 :center_1_0 :center_1_1 :center_1_2 :center_20_0 :center_5_0 :center_6_0 :center_6_1 :center_6_2 :center_21_0 :center_10_0 :center_11_0 :center_11_1 :center_11_2 :center_22_0 :center_15_0 :center_16_0 :center_16_1 :center_16_2 :center_23_0" shape="190.40,13.60 209.60,13.60 210.04,11.38 210.60,10.60 211.38,10.04 212.38,9.71 213.60,9.60 213.60,-9.60 211.38,-10.04 210.60,-10.60 210.04,-11.38 209.71,-12.38 209.60,-13.60 190.40,-13.60 189.96,-11.38 189.40,-10.60 188.62,-10.04 187.62,-9.71 186.40,-9.60 186.40,9.60 188.62,10.04 189.40,10.60 189.96,11.38 190.29,12.38">
        <request index="0"  response="00000000000000000000" foes="00000000000111000000" cont="0"/>
        <request index="1"  response="10000000000000000000" foes="11111100001111000000" cont="0"/>
        <request index="2"  response="10000000000000000000" foes="11111100001111000000" cont="0"/>
        <request index="3"  response="10000000001000000000" foes="11111100001111000000" cont="0"/>
        <request index="4"  response="10000011101000000000" foes="11110011101111000000" cont="1"/>
        <request index="5"  response="00000011100000000000" foes="00000011100000000000" cont="0"/>
        <request index="6"  response="00000111100000011111" foes="10000111100000011111" cont="0"/>
        <request index="7"  response="00000111100000011111" foes="10000111100000011111" cont="0"/>
        <request index="8"  response="00000111100000011111" foes="10000111100000011111" cont="0"/>
        <request index="9"  response="01110111100000011110" foes="01110111100000011110" cont="1"/>
        <request index="10" response="00000000000000000000" foes="01110000000000000000" cont="0"/>
        <request index="11" response="00000000001000000000" foes="11110000001111110000" cont="0"/>
        <request index="12" response="00000000001000000000" foes="11110000001111110000" cont="0"/>
        <request index="13" response="10000000001000000000" foes="11110000001111110000" cont="0"/>
        <request index="14" response="10000000001000001110" foes="11110000001111001110" cont="1"/>
        <request index="15" response="00000000000000001110" foes="00000000000000001110" cont="0"/>
        <request index="16" response="00000111110000011110" foes="00000111111000011110" cont="0"/>
        <request index="17" response="00000111110000011110" foes="00000111111000011110" cont="0"/>
        <request index="18" response="00000111110000011110" foes="00000111111000011110" cont="0"/>
        <request index="19" response="00000111100111011110" foes="00000111100111011110" cont="1"/>
    </junction>
    <junction id="clusterJ33_J6" type="priority" x="900.00" y="-100.00" incLanes="sehir_merkez_alt_1_0 sehir_merkez_alt_1_1 ara_sol_2_0" intLanes=":clusterJ33_J6_0_0 :clusterJ33_J6_0_1 :clusterJ33_J6_2_0" shape="902.48,-98.81 905.34,-104.53 902.82,-105.69 900.87,-106.34 899.17,-106.61 897.42,-106.64 895.30,-106.55 892.49,-106.50 892.49,-100.10 893.87,-99.87 894.15,-99.59 894.15,-99.19 893.88,-98.68 893.34,-98.06 895.60,-95.79 898.28,-98.04 899.47,-98.70 900.57,-99.05 901.57,-99.08">
        <request index="0" response="000" foes="100" cont="0"/>
        <request index="1" response="000" foes="100" cont="0"/>
        <request index="2" response="011" foes="011" cont="0"/>
    </junction>
    <junction id="clusterJ36_J7" type="priority" x="900.00" y="100.00" incLanes="sehir_sagcikis_0 sehir_sagcikis_1" intLanes=":clusterJ36_J7_0_0 :clusterJ36_J7_0_1 :clusterJ36_J7_2_0" shape="905.34,104.34 902.48,98.61 900.57,98.85 899.47,98.50 898.28,97.85 896.99,96.88 895.60,95.60 893.34,97.86 894.15,99.00 894.15,99.39 893.87,99.68 893.32,99.85 892.49,99.90 892.50,106.30 895.30,106.36 897.42,106.44 899.17,106.41 900.87,106.14 902.82,105.49">
        <request index="0" response="000" foes="000" cont="0"/>
        <request index="1" response="000" foes="000" cont="0"/>
        <request index="2" response="000" foes="000" cont="0"/>
    </junction>

    <junction id=":J31_3_0" type="internal" x="700.56" y="0.35" incLanes=":J31_2_0 ara_merkez_2_0" intLanes=":J31_0_0"/>
    <junction id=":J32_3_0" type="internal" x="799.45" y="-0.35" incLanes=":J32_1_0 ara_merkez_1_0" intLanes=":J32_2_0"/>
    <junction id=":J8_5_0" type="internal" x="1094.48" y="3.70" incLanes=":J8_4_0 sehir_cikis_2_0 sehir_cikis_2_1" intLanes=":J8_0_0 :J8_0_1"/>
    <junction id=":center_20_0" type="internal" x="199.11" y="8.64" incLanes=":center_4_0 otoban_asagi_2_0 otoban_asagi_2_1 otoban_asagi_2_2" intLanes=":center_6_0 :center_6_1 :center_6_2 :center_9_0 :center_10_0 :center_11_0 :center_11_1 :center_11_2 :center_16_0 :center_16_1 :center_16_2 :center_19_0"/>
    <junction id=":center_21_0" type="internal" x="208.64" y="0.89" incLanes=":center_9_0 otoban_sol_1_0 otoban_sol_1_1 otoban_sol_1_2" intLanes=":center_1_0 :center_1_1 :center_1_2 :center_4_0 :center_11_0 :center_11_1 :center_11_2 :center_14_0 :center_15_0 :center_16_0 :center_16_1 :center_16_2"/>
    <junction id=":center_22_0" type="internal" x="200.89" y="-8.64" incLanes=":center_14_0 otoban_yukari_2_0 otoban_yukari_2_1 otoban_yukari_2_2" intLanes=":center_0_0 :center_1_0 :center_1_1 :center_1_2 :center_6_0 :center_6_1 :center_6_2 :center_9_0 :center_16_0 :center_16_1 :center_16_2 :center_19_0"/>
    <junction id=":center_23_0" type="internal" x="191.36" y="-0.89" incLanes=":center_19_0 otoban_sag_2_0 otoban_sag_2_1 otoban_sag_2_2" intLanes=":center_1_0 :center_1_1 :center_1_2 :center_4_0 :center_5_0 :center_6_0 :center_6_1 :center_6_2 :center_11_0 :center_11_1 :center_11_2 :center_14_0"/>

    <connection from="ara_merkez_1" to="ara_sol_2" fromLane="0" toLane="0" via=":J32_2_0" dir="r" state="M"/>
    <connection from="ara_merkez_2" to="ara_sag_1" fromLane="0" toLane="0" via=":J31_0_0" dir="r" state="M"/>
    <connection from="ara_sag_1" to="sehir_saggiris" fromLane="0" toLane="1" via=":J2_2_0" dir="l" state="m"/>
    <connection from="ara_sag_2" to="ara_merkez_2" fromLane="0" toLane="0" via=":J32_0_0" dir="r" state="M"/>
    <connection from="ara_sag_2" to="ara_sol_2" fromLane="0" toLane="0" via=":J32_1_0" dir="l" state="m"/>
    <connection from="ara_sol_1" to="ara_merkez_1" fromLane="0" toLane="0" via=":J31_1_0" dir="r" state="M"/>
    <connection from="ara_sol_1" to="ara_sag_1" fromLane="0" toLane="0" via=":J31_2_0" dir="l" state="m"/>